*Heading
** Job name: beamSinAssembly Model name: Model-1_sinAssembly
** Generated by: Abaqus/CAE 6.14-2
*Preprint, echo=NO, model=NO, history=NO, contact=NO
** ----------------------------------------------------------------
** 
** PART INSTANCE: Beam-1
** 
*System
       -0.05,          0.,-0.034999999217689,-0.0499999999999999,          0.,-1.03499999921769
       -0.05,          1.,-0.034999999217689
*Node
      1, -0.0399999991, 0.0149999997, 0.00999999978
      2, -0.0399999991, 0.00999999978, 0.00999999978
      3, -0.0399999991, 0.00499999989, 0.00999999978
      4, -0.0399999991, 0.0149999997, 0.00499999989
      5, -0.0399999991, 0.00999999978, 0.00499999989
      6, -0.0399999991, 0.00499999989, 0.00499999989
      7, -0.0399999991, 0.0149999997,           0.
      8, -0.0399999991, 0.00999999978,           0.
      9, -0.0399999991, 0.00499999989,           0.
     10, -0.0450000018, 0.0149999997, 0.00999999978
     11, -0.0450000018, 0.00999999978, 0.00999999978
     12, -0.0450000018, 0.00499999989, 0.00999999978
     13, -0.0450000018, 0.0149999997, 0.00499999989
     14, -0.0450000018, 0.00999999978, 0.00499999989
     15, -0.0450000018, 0.00499999989, 0.00499999989
     16, -0.0450000018, 0.0149999997,           0.
     17, -0.0450000018, 0.00999999978,           0.
     18, -0.0450000018, 0.00499999989,           0.
     19, -0.0500000007, 0.0149999997, 0.00999999978
     20, -0.0500000007, 0.00999999978, 0.00999999978
** ... 601 like lines cut
*Element, type=C3D20R
 1,  10,  11,  14,  13,   1,   2,   5,   4, 193, 192, 191, 190, 194, 195, 196,
    197, 199, 198, 200, 201
 2,  11,  12,  15,  14,   2,   3,   6,   5, 204, 203, 202, 192, 205, 206, 207,
    195, 198, 208, 209, 200
 3,  13,  14,  17,  16,   4,   5,   8,   7, 191, 212, 211, 210, 196, 213, 214,
    215, 201, 200, 216, 217
 4,  14,  15,  18,  17,   5,   6,   9,   8, 202, 219, 218, 212, 207, 220, 221,
    213, 200, 209, 222, 216
 5,  19,  20,  23,  22,  10,  11,  14,  13, 226, 225, 224, 223, 193, 192, 191,
    190, 228, 227, 229, 230
 6,  20,  21,  24,  23,  11,  12,  15,  14, 233, 232, 231, 225, 204, 203, 202,
    192, 227, 234, 235, 229
 7,  22,  23,  26,  25,  13,  14,  17,  16, 224, 238, 237, 236, 191, 212, 211,
    210, 230, 229, 239, 240
 8,  23,  24,  27,  26,  14,  15,  18,  17, 231, 242, 241, 238, 202, 219, 218,
    212, 229, 235, 243, 239
 9,  28,  29,  32,  31,  19,  20,  23,  22, 247, 246, 245, 244, 226, 225, 224,
    223, 249, 248, 250, 251
10,  29,  30,  33,  32,  20,  21,  24,  23, 254, 253, 252, 246, 233, 232, 231,
    225, 248, 255, 256, 250
** ... 140 like lines cut
*Nset, nset=Beam-1_Set-1, generate
   1,  621,    1
*Elset, elset=Beam-1_Set-1, generate
  1,  80,   1
** Section: Section-1
*Solid Section, elset=Beam-1_Set-1, material=Acero
,
** ----------------------------------------------------------------
** 
** PART INSTANCE: Disk-1
** 
*System
*Node
    622, 0.0111791072, -0.000166006954,           0.
    623, 0.0101440558, 0.0047008656,           0.
    624, 0.00709984871, 0.00863667484,           0.
    625, -0.00232574064, 0.0109357638,           0.
    626, -0.00684027001, 0.00884368178,           0.
    627, -0.00999999978, 0.00499999989,           0.
    628, -0.0111791072, 0.000166006954,           0.
    629, -0.0101440558, -0.0047008656,           0.
    630, -0.00709984871, -0.00863667484,           0.
    631, 0.00232574064, -0.0109357638,           0.
    632, 0.00684027001, -0.00884368178,           0.
    633, 0.00999999978, -0.00499999989,           0.
    634, -0.0149042262,  0.098883085,           0.
    635, -0.0294755176, 0.0955572799,           0.
    636, -0.0433883741, 0.0900968835,           0.
    637, -0.0563320071, 0.0826238766,           0.
    638, -0.0680172741, 0.0733051896,           0.
    639, -0.0781831518, 0.0623489805,           0.
    640, -0.0866025388, 0.0500000007,           0.
    641, -0.0930873752, 0.0365341008,           0.
** ... 11495 like lines cut
*Element, type=C3D20R
  81,  2359,  2298,  2287,  3652,   694,   633,   622,  1987,  3955,  3954,  3953,  3952,  3956,  3957,  3958,
       3959,  3961,  3960,  3962,  3963
  82,  3652,  2345,  2959,  3015,  1987,   680,  1294,  1350,  3967,  3966,  3965,  3964,  3968,  3969,  3970,
       3971,  3963,  3972,  3973,  3974
  83,  2287,  2288,  2345,  3652,   622,   623,   680,  1987,  3976,  3975,  3967,  3953,  3977,  3978,  3968,
       3958,  3962,  3979,  3972,  3963
  84,  2794,  2288,  2289,  2853,  1129,   623,   624,  1188,  3983,  3982,  3981,  3980,  3984,  3985,  3986,
       3987,  3988,  3979,  3989,  3990
  85,  3017,  3679,  2998,  2370,  1352,  2014,  1333,   705,  3994,  3993,  3992,  3991,  3995,  3996,  3997,
       3998,  4000,  3999,  4001,  4002
  86,  3329,  3269,  2495,  3453,  1664,  1604,   830,  1788,  4006,  4005,  4004,  4003,  4007,  4008,  4009,
       4010,  4012,  4011,  4013,  4014
  87,  2453,  3550,  3493,  3421,   788,  1885,  1828,  1756,  4018,  4017,  4016,  4015,  4019,  4020,  4021,
       4022,  4024,  4023,  4025,  4026
  88,  2452,  3225,  3377,  3303,   787,  1560,  1712,  1638,  4030,  4029,  4028,  4027,  4031,  4032,  4033,
       4034,  4036,  4035,  4037,  4038
  89,  2826,  2775,  2693,  2436,  1161,  1110,  1028,   771,  4042,  4041,  4040,  4039,  4043,  4044,  4045,
       4046,  4048,  4047,  4049,  4050
  90,  2826,  3092,  3100,  3078,  1161,  1427,  1435,  1413,  4054,  4053,  4052,  4051,  4055,  4056,  4057,
       4058,  4048,  4059,  4060,  4061
** ... 3170 like lines cut
*Nset, nset=Disk-1_Set-1, generate
   622,  12136,      1
*Elset, elset=Disk-1_Set-1, generate
   81,  1675,     1
** Section: Section-1
*Solid Section, elset=Disk-1_Set-1, material=Acero
,
*System
*Nset, nset=Set-1
 181, 182, 183, 184, 185, 186, 187, 188, 189, 601, 602, 603, 604, 609, 610, 611
 614, 615, 616, 619, 620
*Elset, elset=Set-1, generate
 77,  80,   1
*Nset, nset=Set-3
  622,  623,  624,  625,  626,  627,  628,  629,  630,  631,  632,  633,  930,  931, 2287, 2288
 2289, 2290, 2291, 2292, 2293, 2294, 2295, 2296, 2297, 2298, 2595, 2596, 3954, 3957, 3960, 3962
 3976, 3977, 3979, 3982, 3985, 3989, 4151, 4152, 4155, 4360, 4365, 4367, 4369, 4372, 4375, 4479
 4482, 4486, 4689, 4694, 4695, 5008, 5009, 5012, 5102, 5103, 5105, 5108, 5111, 5115, 5126, 5127
 5130, 5133, 5136, 5138, 8876, 8877
*Elset, elset=Set-3
  81,  83,  84,  99, 119, 120, 130, 151, 179, 188, 189, 191, 192, 606
*Nset, nset=Set-4
  622,  623,  624,  625,  626,  627,  628,  629,  630,  631,  632,  633,  930,  931, 2287, 2288
 2289, 2290, 2291, 2292, 2293, 2294, 2295, 2296, 2297, 2298, 2595, 2596, 3954, 3957, 3960, 3962
 3976, 3977, 3979, 3982, 3985, 3989, 4151, 4152, 4155, 4360, 4365, 4367, 4369, 4372, 4375, 4479
 4482, 4486, 4689, 4694, 4695, 5008, 5009, 5012, 5102, 5103, 5105, 5108, 5111, 5115, 5126, 5127
 5130, 5133, 5136, 5138, 8876, 8877
*Elset, elset=Set-4
  81,  83,  84,  99, 119, 120, 130, 151, 179, 188, 189, 191, 192, 606
*Nset, nset=Set-5, generate
   622,  12136,      1
*Elset, elset=Set-5, generate
   81,  1675,     1
*Nset, nset=b_Set-2, generate
   622,  12136,      1
*Elset, elset=b_Set-2, generate
   81,  1675,     1
*Elset, elset=_Surf-1_S1, generate
 77,  80,   1
*Surface, type=ELEMENT, name=Surf-1
_Surf-1_S1, S1
*Elset, elset=_Surf-6_S1, generate
 77,  80,   1
*Surface, type=ELEMENT, name=Surf-6
_Surf-6_S1, S1
*Elset, elset=_Surf-7_S1, generate
 77,  80,   1
*Surface, type=ELEMENT, name=Surf-7
_Surf-7_S1, S1
*Elset, elset=_m_Surf-2_S1, generate
   81,  1675,     1
*Surface, type=ELEMENT, name=m_Surf-2
_m_Surf-2_S1, S1
*Elset, elset=_m_Surf-4_S1, generate
   81,  1675,     1
*Surface, type=ELEMENT, name=m_Surf-4
_m_Surf-4_S1, S1
*Elset, elset=_s_Surf-2_S2, generate
 1,  4,  1
*Surface, type=ELEMENT, name=s_Surf-2
_s_Surf-2_S2, S2
*Elset, elset=_s_Surf-4_S2, generate
 1,  4,  1
*Surface, type=ELEMENT, name=s_Surf-4
_s_Surf-4_S2, S2
** 
** MATERIALS
** 
*Material, name=Acero
*Density
7900.,
*Elastic
 2.1e+11, 0.3
** 
** INTERACTION PROPERTIES
** 
*Surface Interaction, name=_Int-1-Prop
1.,
*Friction
0.,
*Surface Behavior, pressure-overclosure=HARD
*Surface Interaction, name=conMu
1.,
*Friction, slip tolerance=0.005
 0.3,
*Surface Behavior, pressure-overclosure=HARD
*Surface Interaction, name=sinMu
1.,
*Friction
0.,
*Surface Behavior, pressure-overclosure=HARD
** 
** BOUNDARY CONDITIONS
** 
** Name: beam Type: Displacement/Rotation
*Boundary
Set-1, 1, 1
Set-1, 2, 2
Set-1, 4, 4
Set-1, 5, 5
Set-1, 6, 6
** Name: disk Type: Displacement/Rotation
*Boundary
Set-4, 1, 1
Set-4, 2, 2
Set-4, 3, 3
Set-4, 4, 4
Set-4, 5, 5
Set-4, 6, 6
** 
** INTERACTIONS
** 
** Interaction: Int-1
*Contact Pair, interaction=_Int-1-Prop, type=SURFACE TO SURFACE
s_Surf-4, m_Surf-4
** ----------------------------------------------------------------
** 
** STEP: presion
** 
*Step, name=presion, nlgeom=NO
*Static
0.1, 1., 0.1, 0.1
** 
** LOADS
** 
** Name: Load-1   Type: Pressure
*Dsload
Surf-7, P, 1e+06
** 
** OUTPUT REQUESTS
** 
*Restart, write, frequency=0
** 
** FIELD OUTPUT: F-Output-1
** 
*Output, field, variable=PRESELECT
** 
** HISTORY OUTPUT: H-Output-1
** 
*Output, history, variable=PRESELECT
*End Step
** ----------------------------------------------------------------
** 
** STEP: giro
** 
*Step, name=giro, nlgeom=NO
*Static
1., 1., 1e-05, 1.
** 
** BOUNDARY CONDITIONS
** 
** Name: beam Type: Displacement/Rotation
*Boundary, op=NEW
Set-1, 1, 1
Set-1, 2, 2
Set-1, 4, 4
Set-1, 5, 5
Set-1, 6, 6
** Name: disk Type: Displacement/Rotation
*Boundary, op=NEW
Set-4, 1, 1
Set-4, 2, 2
Set-4, 3, 3
Set-4, 4, 4
Set-4, 5, 5
** Name: giro Type: Velocity/Angular velocity
*Motion, rotation, type=VELOCITY
Set-5,0.1,0,0,0,0,0,1
** 
** INTERACTIONS
** 
** Interaction: Int-1
*Change Friction, interaction=_Int-1-Prop
*Friction, slip tolerance=0.005
 0.3,
** Contact Controls for Interaction: Int-1
*Contact Controls, master=m_Surf-4, slave=s_Surf-4, reset
** 
** OUTPUT REQUESTS
** 
*Restart, write, frequency=0
** 
** FIELD OUTPUT: F-Output-1
** 
*Output, field, variable=PRESELECT
** 
** HISTORY OUTPUT: H-Output-1
** 
*Output, history, variable=PRESELECT
*End Step
** ----------------------------------------------------------------
** 
** STEP: modo
** 
*Step, name=modo, nlgeom=NO, perturbation
*Frequency, eigensolver=Lanczos, acoustic coupling=on, normalization=displacement
30, 1., , , , 
** 
** OUTPUT REQUESTS
** 
*Restart, write, frequency=0
** 
** FIELD OUTPUT: F-Output-2
** 
*Output, field, variable=PRESELECT
*End Step
** ----------------------------------------------------------------
** 
** STEP: modoComplejo
** 
*Step, name=modoComplejo, nlgeom=NO, perturbation, unsymm=YES
*Complex Frequency, friction damping=YES
30, 1., 1e+18, 
** 
** OUTPUT REQUESTS
** 
** 
** FIELD OUTPUT: F-Output-3
** 
*Output, field, variable=PRESELECT
*End Step
